22
Energy =
C     1.2990366    1.7757113    0.4192106 
C    -0.0708157    1.7445537    0.1003019 
C     2.0172829    0.5739356    0.5542995 
C     1.3682936   -0.6596203    0.3699824 
C    -0.0010865   -0.6903745    0.0513917 
C    -0.7210012    0.5104181   -0.0835083 
H     3.0887520    0.5999008    0.8039795 
H     1.8117448    2.7404500    0.5624779 
H    -0.6336505    2.6857271   -0.0057451 
H    -1.7932659    0.4834260   -0.3350460 
H    -0.5088689   -1.6562769   -0.0925548 
H     1.9307542   -1.6012296    0.4750311 
Rn   -3.6786614    3.0012672   -0.6273544 
Rn   -4.4424923    0.2397176   -2.4570870 
Rn   -3.2059233   -2.3869113   -0.7035653 
Fr    1.5913262   -6.3680248   -2.7801510 
Kr    3.1712747   -4.3763625    2.3483241 
Kr    4.9478690   -1.5938866    1.1541024 
Kr    5.0514541    2.7159066    1.3363856 
Kr    3.8653852    5.3811573   -0.5136027 
Kr    0.5748435    5.5480783    0.3223774 
Fr   -1.8829271    5.5550112   -2.1455165 

